Circuit: * C:\Users\tiago\Downloads\circuito_completo_certo.asc

No AC stimulus found:
     Set the value of a current or voltage source to "AC 1."
     to make it behave as a signal generator for AC analysis.
Direct Newton iteration for .op point succeeded.

Date: Tue Dec 19 14:59:58 2023
Total elapsed time: 0.030 seconds.

tnom = 27
temp = 27
method = trap
totiter = 4
traniter = 0
tranpoints = 0
accept = 0
rejected = 0
matrix size = 31
fillins = 27
solver = Normal
Avg thread counts: 8.0/0.0/8.0/8.0
Matrix Compiler1:     190 opcodes
Matrix Compiler2: 3.56 KB object code size
